 .Sol file Watershed HRU:55 Subbasin:9 HRU:4 Luse:FRSE Soil: SBR Slope: 20-9999 10/21/2025 12:00:00 AM ArcSWAT 2012.10_4.21
 Soil Name: SBR
 Soil Hydrologic Group: A
 Maximum rooting depth(mm) :  100.00
 Porosity fraction from which anions are excluded: 0.500
 Crack volume potential of soil: 0.500
 Texture 1                : LSA-LSA
 Depth                [mm]:       50.00      100.00
 Bulk Density Moist [g/cc]:        1.83        1.83
 Ave. AW Incl. Rock Frag  :      150.00       50.00
 Ksat. (est.)      [mm/hr]:        9.07        9.07
 Organic Carbon [weight %]:        2.10        2.10
 Clay           [weight %]:       24.00       24.00
 Silt           [weight %]:       33.00       33.00
 Sand           [weight %]:       43.00       43.00
 Rock Fragments   [vol. %]:       28.65       28.65
 Soil Albedo (Moist)      :        0.01        0.01
 Erosion K                :        0.17        0.17
 Salinity (EC, Form 5)    :        0.00        0.00
 Soil pH                  :        0.00        0.00
 Soil CACO3               :        0.00        0.00
                              
