 .Sol file Watershed HRU:57 Subbasin:10 HRU:1 Luse:AGRC Soil: SBRSPE Slope: 20-9999 10/21/2025 12:00:00 AM ArcSWAT 2012.10_4.21
 Soil Name: SBRSPE
 Soil Hydrologic Group: C
 Maximum rooting depth(mm) :   76.00
 Porosity fraction from which anions are excluded: 0.500
 Crack volume potential of soil: 0.500
 Texture 1                : LSA-LSA
 Depth                [mm]:       38.00       76.00
 Bulk Density Moist [g/cc]:        1.83        1.83
 Ave. AW Incl. Rock Frag  :      150.00       50.00
 Ksat. (est.)      [mm/hr]:        9.05        9.05
 Organic Carbon [weight %]:        1.75        1.75
 Clay           [weight %]:       26.00       26.00
 Silt           [weight %]:       32.00       32.00
 Sand           [weight %]:       42.00       42.00
 Rock Fragments   [vol. %]:       17.15       17.15
 Soil Albedo (Moist)      :        0.01        0.01
 Erosion K                :        0.25        0.25
 Salinity (EC, Form 5)    :        0.00        0.00
 Soil pH                  :        0.00        0.00
 Soil CACO3               :        0.00        0.00
                              
