 .Sol file Watershed HRU:79 Subbasin:14 HRU:6 Luse:FRSE Soil: SCALSEP Slope: 10-15 10/21/2025 12:00:00 AM ArcSWAT 2012.10_4.21
 Soil Name: SCALSEP
 Soil Hydrologic Group: A
 Maximum rooting depth(mm) :   58.00
 Porosity fraction from which anions are excluded: 0.500
 Crack volume potential of soil: 0.500
 Texture 1                : LSA-LSA
 Depth                [mm]:       29.00       58.00
 Bulk Density Moist [g/cc]:        1.84        1.84
 Ave. AW Incl. Rock Frag  :      150.00       50.00
 Ksat. (est.)      [mm/hr]:        9.14        9.14
 Organic Carbon [weight %]:        1.75        1.75
 Clay           [weight %]:       21.00       21.00
 Silt           [weight %]:       34.00       34.00
 Sand           [weight %]:       45.00       45.00
 Rock Fragments   [vol. %]:       58.63       58.63
 Soil Albedo (Moist)      :        0.01        0.01
 Erosion K                :        0.15        0.15
 Salinity (EC, Form 5)    :        0.00        0.00
 Soil pH                  :        0.00        0.00
 Soil CACO3               :        0.00        0.00
                              
