 .Sol file Watershed HRU:67 Subbasin:12 HRU:3 Luse:FRSE Soil: SMB Slope: 20-9999 10/21/2025 12:00:00 AM ArcSWAT 2012.10_4.21
 Soil Name: SMB
 Soil Hydrologic Group: A
 Maximum rooting depth(mm) :   52.00
 Porosity fraction from which anions are excluded: 0.500
 Crack volume potential of soil: 0.500
 Texture 1                : LSA-LSA
 Depth                [mm]:       26.00       52.00
 Bulk Density Moist [g/cc]:        1.84        1.84
 Ave. AW Incl. Rock Frag  :      150.00       50.00
 Ksat. (est.)      [mm/hr]:        9.14        9.14
 Organic Carbon [weight %]:        1.20        1.20
 Clay           [weight %]:       23.00       23.00
 Silt           [weight %]:       28.00       28.00
 Sand           [weight %]:       49.00       49.00
 Rock Fragments   [vol. %]:       27.26       27.26
 Soil Albedo (Moist)      :        0.01        0.01
 Erosion K                :        0.20        0.20
 Salinity (EC, Form 5)    :        0.00        0.00
 Soil pH                  :        0.00        0.00
 Soil CACO3               :        0.00        0.00
                              
