 .Sol file Watershed HRU:198 Subbasin:25 HRU:5 Luse:FRSE Soil: SFER Slope: 10-15 10/21/2025 12:00:00 AM ArcSWAT 2012.10_4.21
 Soil Name: SFER
 Soil Hydrologic Group: B
 Maximum rooting depth(mm) :   90.00
 Porosity fraction from which anions are excluded: 0.500
 Crack volume potential of soil: 0.500
 Texture 1                : LAS-LAS
 Depth                [mm]:       45.00       90.00
 Bulk Density Moist [g/cc]:        1.82        1.82
 Ave. AW Incl. Rock Frag  :      150.00       50.00
 Ksat. (est.)      [mm/hr]:        8.99        8.99
 Organic Carbon [weight %]:        1.80        1.80
 Clay           [weight %]:       24.00       24.00
 Silt           [weight %]:       46.00       46.00
 Sand           [weight %]:       30.00       30.00
 Rock Fragments   [vol. %]:        1.15        1.15
 Soil Albedo (Moist)      :        0.01        0.01
 Erosion K                :        0.28        0.28
 Salinity (EC, Form 5)    :        0.00        0.00
 Soil pH                  :        0.00        0.00
 Soil CACO3               :        0.00        0.00
                              
