 .Sol file Watershed HRU:161 Subbasin:21 HRU:5 Luse:FRSE Soil: SPE Slope: 20-9999 10/21/2025 12:00:00 AM ArcSWAT 2012.10_4.21
 Soil Name: SPE
 Soil Hydrologic Group: B
 Maximum rooting depth(mm) :   52.00
 Porosity fraction from which anions are excluded: 0.500
 Crack volume potential of soil: 0.500
 Texture 1                : LSA-LSA
 Depth                [mm]:       26.00       52.00
 Bulk Density Moist [g/cc]:        1.83        1.83
 Ave. AW Incl. Rock Frag  :      150.00       50.00
 Ksat. (est.)      [mm/hr]:        9.02        9.02
 Organic Carbon [weight %]:        1.40        1.40
 Clay           [weight %]:       28.00       28.00
 Silt           [weight %]:       31.00       31.00
 Sand           [weight %]:       41.00       41.00
 Rock Fragments   [vol. %]:        5.64        5.64
 Soil Albedo (Moist)      :        0.01        0.01
 Erosion K                :        0.32        0.32
 Salinity (EC, Form 5)    :        0.00        0.00
 Soil pH                  :        0.00        0.00
 Soil CACO3               :        0.00        0.00
                              
