 .Sol file Watershed HRU:173 Subbasin:22 HRU:11 Luse:FRSE Soil: SPESMB Slope: 20-9999 10/21/2025 12:00:00 AM ArcSWAT 2012.10_4.21
 Soil Name: SPESMB
 Soil Hydrologic Group: C
 Maximum rooting depth(mm) :   52.00
 Porosity fraction from which anions are excluded: 0.500
 Crack volume potential of soil: 0.500
 Texture 1                : LSA-LSA
 Depth                [mm]:       26.00       52.00
 Bulk Density Moist [g/cc]:        1.83        1.83
 Ave. AW Incl. Rock Frag  :      150.00       50.00
 Ksat. (est.)      [mm/hr]:        9.08        9.08
 Organic Carbon [weight %]:        1.30        1.30
 Clay           [weight %]:       26.00       26.00
 Silt           [weight %]:       29.00       29.00
 Sand           [weight %]:       45.00       45.00
 Rock Fragments   [vol. %]:       16.45       16.45
 Soil Albedo (Moist)      :        0.01        0.01
 Erosion K                :        0.26        0.26
 Salinity (EC, Form 5)    :        0.00        0.00
 Soil pH                  :        0.00        0.00
 Soil CACO3               :        0.00        0.00
                              
