Watershed atmospheric deposition file      .atm file 10/21/2025 12:00:00 AM ArcSWAT 2012.10_4.21




             0.000     0.000     0.000     0.000
             0.000     0.000     0.000     0.000
             0.000     0.000     0.000     0.000
             0.000     0.000     0.000     0.000
             0.000     0.000     0.000     0.000
             0.000     0.000     0.000     0.000
             0.000     0.000     0.000     0.000
             0.000     0.000     0.000     0.000
             0.000     0.000     0.000     0.000
             0.000     0.000     0.000     0.000
             0.000     0.000     0.000     0.000
             0.000     0.000     0.000     0.000
             0.000     0.000     0.000     0.000
             0.000     0.000     0.000     0.000
             0.000     0.000     0.000     0.000
             0.000     0.000     0.000     0.000
             0.000     0.000     0.000     0.000
             0.000     0.000     0.000     0.000
             0.000     0.000     0.000     0.000
             0.000     0.000     0.000     0.000
             0.000     0.000     0.000     0.000
             0.000     0.000     0.000     0.000
             0.000     0.000     0.000     0.000
             0.000     0.000     0.000     0.000
             0.000     0.000     0.000     0.000
             0.000     0.000     0.000     0.000
             0.000     0.000     0.000     0.000
